<?xml version="1.0" encoding="UTF-8"?>

<!-- generated on 2023-05-17 15:57:36 by Eclipse SUMO duarouter Version 1.16.0
<configuration xmlns:xsi="http://www.w3.org/2001/XMLSchema-instance" xsi:noNamespaceSchemaLocation="http://sumo.dlr.de/xsd/duarouterConfiguration.xsd">

    <input>
        <net-file value="/home/fahmy/PhD/Experiments/eSMARTS/src/SMARTS/scenarios/sumo/intersections/4lane_merge/map.net.xml"/>
        <route-files value="/tmp/tmpxo3c70qi/trips.trips.xml"/>
    </input>

    <output>
        <output-file value="/home/fahmy/PhD/Experiments/eSMARTS/src/SMARTS/scenarios/sumo/intersections/4lane_merge/build/traffic/Merging_traffic.rou.xml"/>
    </output>

    <processing>
        <unsorted-input value="true"/>
        <repair value="true"/>
    </processing>

    <report>
        <error-log value="/home/fahmy/.smarts/_duarouter_routing/traffic/Merging_traffic.log"/>
        <no-step-log value="true"/>
    </report>

    <random_number>
        <seed value="42"/>
    </random_number>

</configuration>
-->

<routes xmlns:xsi="http://www.w3.org/2001/XMLSchema-instance" xsi:noNamespaceSchemaLocation="http://sumo.dlr.de/xsd/routes_file.xsd">
    
    <vType id="car--42389" minGap="2.50" maxSpeed="55.50" speedFactor="normc(1.00,0.10,0.20,2.00)" vClass="passenger" accel="2.6" decel="4.5" sigma="0.5"/>
    <!-- New Vehicles -->
    <vehicle id="agent-1" type="car--42389" color="1,0,0" depart="0.00" departLane="0" departPos="0.00" departSpeed="max" arrivalLane="0" arrivalPos="max">
        <route edges="edge-west-WE edge-north-SN"/>
    </vehicle>
    <vehicle id="agent-2" type="car--42389" color="1,0,0" depart="0.00" departLane="0" departPos="0.00" departSpeed="max" arrivalLane="0" arrivalPos="max">
        <route edges="edge-east-EW edge-south-NS"/>
    </vehicle>
    <vehicle id="agent-3" type="car--42389" color="1,0,0" depart="0.00" departLane="0" departPos="0.00" departSpeed="max" arrivalLane="0" arrivalPos="max">
        <route edges="edge-south-SN edge-north-SN"/>
    </vehicle>
    <vehicle id="agent-4" type="car--42389" color="1,0,0" depart="0.00" departLane="0" departPos="0.00" departSpeed="max" arrivalLane="0" arrivalPos="max">
        <route edges="edge-north-NS edge-south-NS"/>
    </vehicle> 
    
    <vehicle id="car-edge-east-EW_1_5-edge-south-NS_0_max--57059--75468-1-0.0" type="car--42389" depart="0.00" departLane="1" departPos="5.00" departSpeed="max" arrivalLane="0" arrivalPos="max">
        <route edges="edge-east-EW edge-south-NS"/>
    </vehicle>
    <vehicle id="car-edge-north-NS_0_20-edge-south-NS_0_max--63699--91440-5-0.0" type="car--42389" depart="0.00" departLane="0" departPos="20.00" departSpeed="max" arrivalLane="0" arrivalPos="max">
        <route edges="edge-north-NS edge-south-NS"/>
    </vehicle>
    <vehicle id="car-edge-south-SN_0_20-edge-north-SN_0_max--79563--75419-4-0.0" type="car--42389" depart="0.00" departLane="0" departPos="20.00" departSpeed="max" arrivalLane="0" arrivalPos="max">
        <route edges="edge-south-SN edge-north-SN"/>
    </vehicle>
    <vehicle id="car-edge-west-WE_0_20-edge-east-WE_0_max--51855-610074-2-0.0" type="car--42389" depart="0.00" departLane="0" departPos="20.00" departSpeed="max" arrivalLane="0" arrivalPos="max">
        <route edges="edge-west-WE edge-east-WE"/>
    </vehicle>
    <vehicle id="car-edge-west-WE_0_20-edge-south-NS_0_max--23076--22093-3-0.0" type="car--42389" depart="0.00" departLane="0" departPos="20.00" departSpeed="max" arrivalLane="0" arrivalPos="max">
        <route edges="edge-west-WE edge-south-NS"/>
    </vehicle>
    <vehicle id="car-edge-west-WE_1_5-edge-north-SN_0_max--39205--63577-0-0.0" type="car--42389" depart="0.00" departLane="1" departPos="5.00" departSpeed="max" arrivalLane="0" arrivalPos="max">
        <route edges="edge-west-WE edge-north-SN"/>
    </vehicle>
    <vehicle id="car-edge-north-NS_0_20-edge-south-NS_0_max--63699--91440-5-0.1" type="car--42389" depart="7.20" departLane="0" departPos="20.00" departSpeed="max" arrivalLane="0" arrivalPos="max">
        <route edges="edge-north-NS edge-south-NS"/>
    </vehicle>
    <vehicle id="car-edge-north-NS_0_20-edge-south-NS_0_max--63699--91440-5-0.2" type="car--42389" depart="14.40" departLane="0" departPos="20.00" departSpeed="max" arrivalLane="0" arrivalPos="max">
        <route edges="edge-north-NS edge-south-NS"/>
    </vehicle>
    <vehicle id="car-edge-east-EW_1_5-edge-south-NS_0_max--57059--75468-1-0.1" type="car--42389" depart="18.00" departLane="1" departPos="5.00" departSpeed="max" arrivalLane="0" arrivalPos="max">
        <route edges="edge-east-EW edge-south-NS"/>
    </vehicle>
    <vehicle id="car-edge-south-SN_0_20-edge-north-SN_0_max--79563--75419-4-0.1" type="car--42389" depart="18.00" departLane="0" departPos="20.00" departSpeed="max" arrivalLane="0" arrivalPos="max">
        <route edges="edge-south-SN edge-north-SN"/>
    </vehicle>
    <vehicle id="car-edge-west-WE_0_20-edge-east-WE_0_max--51855-610074-2-0.1" type="car--42389" depart="18.00" departLane="0" departPos="20.00" departSpeed="max" arrivalLane="0" arrivalPos="max">
        <route edges="edge-west-WE edge-east-WE"/>
    </vehicle>
    <vehicle id="car-edge-west-WE_0_20-edge-south-NS_0_max--23076--22093-3-0.1" type="car--42389" depart="18.00" departLane="0" departPos="20.00" departSpeed="max" arrivalLane="0" arrivalPos="max">
        <route edges="edge-west-WE edge-south-NS"/>
    </vehicle>
    <vehicle id="car-edge-west-WE_1_5-edge-north-SN_0_max--39205--63577-0-0.1" type="car--42389" depart="18.00" departLane="1" departPos="5.00" departSpeed="max" arrivalLane="0" arrivalPos="max">
        <route edges="edge-west-WE edge-north-SN"/>
    </vehicle>
    <vehicle id="car-edge-north-NS_0_20-edge-south-NS_0_max--63699--91440-5-0.3" type="car--42389" depart="21.60" departLane="0" departPos="20.00" departSpeed="max" arrivalLane="0" arrivalPos="max">
        <route edges="edge-north-NS edge-south-NS"/>
    </vehicle>
    <vehicle id="car-edge-north-NS_0_20-edge-south-NS_0_max--63699--91440-5-0.4" type="car--42389" depart="28.80" departLane="0" departPos="20.00" departSpeed="max" arrivalLane="0" arrivalPos="max">
        <route edges="edge-north-NS edge-south-NS"/>
    </vehicle>
    <vehicle id="car-edge-east-EW_1_5-edge-south-NS_0_max--57059--75468-1-0.2" type="car--42389" depart="36.00" departLane="1" departPos="5.00" departSpeed="max" arrivalLane="0" arrivalPos="max">
        <route edges="edge-east-EW edge-south-NS"/>
    </vehicle>
    <vehicle id="car-edge-north-NS_0_20-edge-south-NS_0_max--63699--91440-5-0.5" type="car--42389" depart="36.00" departLane="0" departPos="20.00" departSpeed="max" arrivalLane="0" arrivalPos="max">
        <route edges="edge-north-NS edge-south-NS"/>
    </vehicle>
    <vehicle id="car-edge-south-SN_0_20-edge-north-SN_0_max--79563--75419-4-0.2" type="car--42389" depart="36.00" departLane="0" departPos="20.00" departSpeed="max" arrivalLane="0" arrivalPos="max">
        <route edges="edge-south-SN edge-north-SN"/>
    </vehicle>
    <vehicle id="car-edge-west-WE_0_20-edge-east-WE_0_max--51855-610074-2-0.2" type="car--42389" depart="36.00" departLane="0" departPos="20.00" departSpeed="max" arrivalLane="0" arrivalPos="max">
        <route edges="edge-west-WE edge-east-WE"/>
    </vehicle>
    <vehicle id="car-edge-west-WE_0_20-edge-south-NS_0_max--23076--22093-3-0.2" type="car--42389" depart="36.00" departLane="0" departPos="20.00" departSpeed="max" arrivalLane="0" arrivalPos="max">
        <route edges="edge-west-WE edge-south-NS"/>
    </vehicle>
    <vehicle id="car-edge-west-WE_1_5-edge-north-SN_0_max--39205--63577-0-0.2" type="car--42389" depart="36.00" departLane="1" departPos="5.00" departSpeed="max" arrivalLane="0" arrivalPos="max">
        <route edges="edge-west-WE edge-north-SN"/>
    </vehicle>
    <vehicle id="car-edge-north-NS_0_20-edge-south-NS_0_max--63699--91440-5-0.6" type="car--42389" depart="43.20" departLane="0" departPos="20.00" departSpeed="max" arrivalLane="0" arrivalPos="max">
        <route edges="edge-north-NS edge-south-NS"/>
    </vehicle>
    <vehicle id="car-edge-north-NS_0_20-edge-south-NS_0_max--63699--91440-5-0.7" type="car--42389" depart="50.40" departLane="0" departPos="20.00" departSpeed="max" arrivalLane="0" arrivalPos="max">
        <route edges="edge-north-NS edge-south-NS"/>
    </vehicle>
    <vehicle id="car-edge-east-EW_1_5-edge-south-NS_0_max--57059--75468-1-0.3" type="car--42389" depart="54.00" departLane="1" departPos="5.00" departSpeed="max" arrivalLane="0" arrivalPos="max">
        <route edges="edge-east-EW edge-south-NS"/>
    </vehicle>
    <vehicle id="car-edge-south-SN_0_20-edge-north-SN_0_max--79563--75419-4-0.3" type="car--42389" depart="54.00" departLane="0" departPos="20.00" departSpeed="max" arrivalLane="0" arrivalPos="max">
        <route edges="edge-south-SN edge-north-SN"/>
    </vehicle>
    <vehicle id="car-edge-west-WE_0_20-edge-east-WE_0_max--51855-610074-2-0.3" type="car--42389" depart="54.00" departLane="0" departPos="20.00" departSpeed="max" arrivalLane="0" arrivalPos="max">
        <route edges="edge-west-WE edge-east-WE"/>
    </vehicle>
    <vehicle id="car-edge-west-WE_0_20-edge-south-NS_0_max--23076--22093-3-0.3" type="car--42389" depart="54.00" departLane="0" departPos="20.00" departSpeed="max" arrivalLane="0" arrivalPos="max">
        <route edges="edge-west-WE edge-south-NS"/>
    </vehicle>
    <vehicle id="car-edge-west-WE_1_5-edge-north-SN_0_max--39205--63577-0-0.3" type="car--42389" depart="54.00" departLane="1" departPos="5.00" departSpeed="max" arrivalLane="0" arrivalPos="max">
        <route edges="edge-west-WE edge-north-SN"/>
    </vehicle>
    <vehicle id="car-edge-north-NS_0_20-edge-south-NS_0_max--63699--91440-5-0.8" type="car--42389" depart="57.60" departLane="0" departPos="20.00" departSpeed="max" arrivalLane="0" arrivalPos="max">
        <route edges="edge-north-NS edge-south-NS"/>
    </vehicle>
    <vehicle id="car-edge-north-NS_0_20-edge-south-NS_0_max--63699--91440-5-0.9" type="car--42389" depart="64.80" departLane="0" departPos="20.00" departSpeed="max" arrivalLane="0" arrivalPos="max">
        <route edges="edge-north-NS edge-south-NS"/>
    </vehicle>
    <vehicle id="car-edge-east-EW_1_5-edge-south-NS_0_max--57059--75468-1-0.4" type="car--42389" depart="72.00" departLane="1" departPos="5.00" departSpeed="max" arrivalLane="0" arrivalPos="max">
        <route edges="edge-east-EW edge-south-NS"/>
    </vehicle>
    <vehicle id="car-edge-north-NS_0_20-edge-south-NS_0_max--63699--91440-5-0.10" type="car--42389" depart="72.00" departLane="0" departPos="20.00" departSpeed="max" arrivalLane="0" arrivalPos="max">
        <route edges="edge-north-NS edge-south-NS"/>
    </vehicle>
    <vehicle id="car-edge-south-SN_0_20-edge-north-SN_0_max--79563--75419-4-0.4" type="car--42389" depart="72.00" departLane="0" departPos="20.00" departSpeed="max" arrivalLane="0" arrivalPos="max">
        <route edges="edge-south-SN edge-north-SN"/>
    </vehicle>
    <vehicle id="car-edge-west-WE_0_20-edge-east-WE_0_max--51855-610074-2-0.4" type="car--42389" depart="72.00" departLane="0" departPos="20.00" departSpeed="max" arrivalLane="0" arrivalPos="max">
        <route edges="edge-west-WE edge-east-WE"/>
    </vehicle>
    <vehicle id="car-edge-west-WE_0_20-edge-south-NS_0_max--23076--22093-3-0.4" type="car--42389" depart="72.00" departLane="0" departPos="20.00" departSpeed="max" arrivalLane="0" arrivalPos="max">
        <route edges="edge-west-WE edge-south-NS"/>
    </vehicle>
    <vehicle id="car-edge-west-WE_1_5-edge-north-SN_0_max--39205--63577-0-0.4" type="car--42389" depart="72.00" departLane="1" departPos="5.00" departSpeed="max" arrivalLane="0" arrivalPos="max">
        <route edges="edge-west-WE edge-north-SN"/>
    </vehicle>
    <vehicle id="car-edge-north-NS_0_20-edge-south-NS_0_max--63699--91440-5-0.11" type="car--42389" depart="79.20" departLane="0" departPos="20.00" departSpeed="max" arrivalLane="0" arrivalPos="max">
        <route edges="edge-north-NS edge-south-NS"/>
    </vehicle>
    <vehicle id="car-edge-north-NS_0_20-edge-south-NS_0_max--63699--91440-5-0.12" type="car--42389" depart="86.40" departLane="0" departPos="20.00" departSpeed="max" arrivalLane="0" arrivalPos="max">
        <route edges="edge-north-NS edge-south-NS"/>
    </vehicle>
    <vehicle id="car-edge-east-EW_1_5-edge-south-NS_0_max--57059--75468-1-0.5" type="car--42389" depart="90.00" departLane="1" departPos="5.00" departSpeed="max" arrivalLane="0" arrivalPos="max">
        <route edges="edge-east-EW edge-south-NS"/>
    </vehicle>
    <vehicle id="car-edge-south-SN_0_20-edge-north-SN_0_max--79563--75419-4-0.5" type="car--42389" depart="90.00" departLane="0" departPos="20.00" departSpeed="max" arrivalLane="0" arrivalPos="max">
        <route edges="edge-south-SN edge-north-SN"/>
    </vehicle>
    <vehicle id="car-edge-west-WE_0_20-edge-east-WE_0_max--51855-610074-2-0.5" type="car--42389" depart="90.00" departLane="0" departPos="20.00" departSpeed="max" arrivalLane="0" arrivalPos="max">
        <route edges="edge-west-WE edge-east-WE"/>
    </vehicle>
    <vehicle id="car-edge-west-WE_0_20-edge-south-NS_0_max--23076--22093-3-0.5" type="car--42389" depart="90.00" departLane="0" departPos="20.00" departSpeed="max" arrivalLane="0" arrivalPos="max">
        <route edges="edge-west-WE edge-south-NS"/>
    </vehicle>
    <vehicle id="car-edge-west-WE_1_5-edge-north-SN_0_max--39205--63577-0-0.5" type="car--42389" depart="90.00" departLane="1" departPos="5.00" departSpeed="max" arrivalLane="0" arrivalPos="max">
        <route edges="edge-west-WE edge-north-SN"/>
    </vehicle>
    <vehicle id="car-edge-north-NS_0_20-edge-south-NS_0_max--63699--91440-5-0.13" type="car--42389" depart="93.60" departLane="0" departPos="20.00" departSpeed="max" arrivalLane="0" arrivalPos="max">
        <route edges="edge-north-NS edge-south-NS"/>
    </vehicle>
    <vehicle id="car-edge-north-NS_0_20-edge-south-NS_0_max--63699--91440-5-0.14" type="car--42389" depart="100.80" departLane="0" departPos="20.00" departSpeed="max" arrivalLane="0" arrivalPos="max">
        <route edges="edge-north-NS edge-south-NS"/>
    </vehicle>
    <vehicle id="car-edge-east-EW_1_5-edge-south-NS_0_max--57059--75468-1-0.6" type="car--42389" depart="108.00" departLane="1" departPos="5.00" departSpeed="max" arrivalLane="0" arrivalPos="max">
        <route edges="edge-east-EW edge-south-NS"/>
    </vehicle>
    <vehicle id="car-edge-north-NS_0_20-edge-south-NS_0_max--63699--91440-5-0.15" type="car--42389" depart="108.00" departLane="0" departPos="20.00" departSpeed="max" arrivalLane="0" arrivalPos="max">
        <route edges="edge-north-NS edge-south-NS"/>
    </vehicle>
    <vehicle id="car-edge-south-SN_0_20-edge-north-SN_0_max--79563--75419-4-0.6" type="car--42389" depart="108.00" departLane="0" departPos="20.00" departSpeed="max" arrivalLane="0" arrivalPos="max">
        <route edges="edge-south-SN edge-north-SN"/>
    </vehicle>
    <vehicle id="car-edge-west-WE_0_20-edge-east-WE_0_max--51855-610074-2-0.6" type="car--42389" depart="108.00" departLane="0" departPos="20.00" departSpeed="max" arrivalLane="0" arrivalPos="max">
        <route edges="edge-west-WE edge-east-WE"/>
    </vehicle>
    <vehicle id="car-edge-west-WE_0_20-edge-south-NS_0_max--23076--22093-3-0.6" type="car--42389" depart="108.00" departLane="0" departPos="20.00" departSpeed="max" arrivalLane="0" arrivalPos="max">
        <route edges="edge-west-WE edge-south-NS"/>
    </vehicle>
    <vehicle id="car-edge-west-WE_1_5-edge-north-SN_0_max--39205--63577-0-0.6" type="car--42389" depart="108.00" departLane="1" departPos="5.00" departSpeed="max" arrivalLane="0" arrivalPos="max">
        <route edges="edge-west-WE edge-north-SN"/>
    </vehicle>
    <vehicle id="car-edge-north-NS_0_20-edge-south-NS_0_max--63699--91440-5-0.16" type="car--42389" depart="115.20" departLane="0" departPos="20.00" departSpeed="max" arrivalLane="0" arrivalPos="max">
        <route edges="edge-north-NS edge-south-NS"/>
    </vehicle>
    <vehicle id="car-edge-north-NS_0_20-edge-south-NS_0_max--63699--91440-5-0.17" type="car--42389" depart="122.40" departLane="0" departPos="20.00" departSpeed="max" arrivalLane="0" arrivalPos="max">
        <route edges="edge-north-NS edge-south-NS"/>
    </vehicle>
    <vehicle id="car-edge-east-EW_1_5-edge-south-NS_0_max--57059--75468-1-0.7" type="car--42389" depart="126.00" departLane="1" departPos="5.00" departSpeed="max" arrivalLane="0" arrivalPos="max">
        <route edges="edge-east-EW edge-south-NS"/>
    </vehicle>
    <vehicle id="car-edge-south-SN_0_20-edge-north-SN_0_max--79563--75419-4-0.7" type="car--42389" depart="126.00" departLane="0" departPos="20.00" departSpeed="max" arrivalLane="0" arrivalPos="max">
        <route edges="edge-south-SN edge-north-SN"/>
    </vehicle>
    <vehicle id="car-edge-west-WE_0_20-edge-east-WE_0_max--51855-610074-2-0.7" type="car--42389" depart="126.00" departLane="0" departPos="20.00" departSpeed="max" arrivalLane="0" arrivalPos="max">
        <route edges="edge-west-WE edge-east-WE"/>
    </vehicle>
    <vehicle id="car-edge-west-WE_0_20-edge-south-NS_0_max--23076--22093-3-0.7" type="car--42389" depart="126.00" departLane="0" departPos="20.00" departSpeed="max" arrivalLane="0" arrivalPos="max">
        <route edges="edge-west-WE edge-south-NS"/>
    </vehicle>
    <vehicle id="car-edge-west-WE_1_5-edge-north-SN_0_max--39205--63577-0-0.7" type="car--42389" depart="126.00" departLane="1" departPos="5.00" departSpeed="max" arrivalLane="0" arrivalPos="max">
        <route edges="edge-west-WE edge-north-SN"/>
    </vehicle>
    <vehicle id="car-edge-north-NS_0_20-edge-south-NS_0_max--63699--91440-5-0.18" type="car--42389" depart="129.60" departLane="0" departPos="20.00" departSpeed="max" arrivalLane="0" arrivalPos="max">
        <route edges="edge-north-NS edge-south-NS"/>
    </vehicle>
    <vehicle id="car-edge-north-NS_0_20-edge-south-NS_0_max--63699--91440-5-0.19" type="car--42389" depart="136.80" departLane="0" departPos="20.00" departSpeed="max" arrivalLane="0" arrivalPos="max">
        <route edges="edge-north-NS edge-south-NS"/>
    </vehicle>
    <vehicle id="car-edge-east-EW_1_5-edge-south-NS_0_max--57059--75468-1-0.8" type="car--42389" depart="144.00" departLane="1" departPos="5.00" departSpeed="max" arrivalLane="0" arrivalPos="max">
        <route edges="edge-east-EW edge-south-NS"/>
    </vehicle>
    <vehicle id="car-edge-north-NS_0_20-edge-south-NS_0_max--63699--91440-5-0.20" type="car--42389" depart="144.00" departLane="0" departPos="20.00" departSpeed="max" arrivalLane="0" arrivalPos="max">
        <route edges="edge-north-NS edge-south-NS"/>
    </vehicle>
    <vehicle id="car-edge-south-SN_0_20-edge-north-SN_0_max--79563--75419-4-0.8" type="car--42389" depart="144.00" departLane="0" departPos="20.00" departSpeed="max" arrivalLane="0" arrivalPos="max">
        <route edges="edge-south-SN edge-north-SN"/>
    </vehicle>
    <vehicle id="car-edge-west-WE_0_20-edge-east-WE_0_max--51855-610074-2-0.8" type="car--42389" depart="144.00" departLane="0" departPos="20.00" departSpeed="max" arrivalLane="0" arrivalPos="max">
        <route edges="edge-west-WE edge-east-WE"/>
    </vehicle>
    <vehicle id="car-edge-west-WE_0_20-edge-south-NS_0_max--23076--22093-3-0.8" type="car--42389" depart="144.00" departLane="0" departPos="20.00" departSpeed="max" arrivalLane="0" arrivalPos="max">
        <route edges="edge-west-WE edge-south-NS"/>
    </vehicle>
    <vehicle id="car-edge-west-WE_1_5-edge-north-SN_0_max--39205--63577-0-0.8" type="car--42389" depart="144.00" departLane="1" departPos="5.00" departSpeed="max" arrivalLane="0" arrivalPos="max">
        <route edges="edge-west-WE edge-north-SN"/>
    </vehicle>
    <vehicle id="car-edge-north-NS_0_20-edge-south-NS_0_max--63699--91440-5-0.21" type="car--42389" depart="151.20" departLane="0" departPos="20.00" departSpeed="max" arrivalLane="0" arrivalPos="max">
        <route edges="edge-north-NS edge-south-NS"/>
    </vehicle>
    <vehicle id="car-edge-north-NS_0_20-edge-south-NS_0_max--63699--91440-5-0.22" type="car--42389" depart="158.40" departLane="0" departPos="20.00" departSpeed="max" arrivalLane="0" arrivalPos="max">
        <route edges="edge-north-NS edge-south-NS"/>
    </vehicle>
    <vehicle id="car-edge-east-EW_1_5-edge-south-NS_0_max--57059--75468-1-0.9" type="car--42389" depart="162.00" departLane="1" departPos="5.00" departSpeed="max" arrivalLane="0" arrivalPos="max">
        <route edges="edge-east-EW edge-south-NS"/>
    </vehicle>
    <vehicle id="car-edge-south-SN_0_20-edge-north-SN_0_max--79563--75419-4-0.9" type="car--42389" depart="162.00" departLane="0" departPos="20.00" departSpeed="max" arrivalLane="0" arrivalPos="max">
        <route edges="edge-south-SN edge-north-SN"/>
    </vehicle>
    <vehicle id="car-edge-west-WE_0_20-edge-east-WE_0_max--51855-610074-2-0.9" type="car--42389" depart="162.00" departLane="0" departPos="20.00" departSpeed="max" arrivalLane="0" arrivalPos="max">
        <route edges="edge-west-WE edge-east-WE"/>
    </vehicle>
    <vehicle id="car-edge-west-WE_0_20-edge-south-NS_0_max--23076--22093-3-0.9" type="car--42389" depart="162.00" departLane="0" departPos="20.00" departSpeed="max" arrivalLane="0" arrivalPos="max">
        <route edges="edge-west-WE edge-south-NS"/>
    </vehicle>
    <vehicle id="car-edge-west-WE_1_5-edge-north-SN_0_max--39205--63577-0-0.9" type="car--42389" depart="162.00" departLane="1" departPos="5.00" departSpeed="max" arrivalLane="0" arrivalPos="max">
        <route edges="edge-west-WE edge-north-SN"/>
    </vehicle>
    <vehicle id="car-edge-north-NS_0_20-edge-south-NS_0_max--63699--91440-5-0.23" type="car--42389" depart="165.60" departLane="0" departPos="20.00" departSpeed="max" arrivalLane="0" arrivalPos="max">
        <route edges="edge-north-NS edge-south-NS"/>
    </vehicle>
    <vehicle id="car-edge-north-NS_0_20-edge-south-NS_0_max--63699--91440-5-0.24" type="car--42389" depart="172.80" departLane="0" departPos="20.00" departSpeed="max" arrivalLane="0" arrivalPos="max">
        <route edges="edge-north-NS edge-south-NS"/>
    </vehicle>
    <vehicle id="car-edge-east-EW_1_5-edge-south-NS_0_max--57059--75468-1-0.10" type="car--42389" depart="180.00" departLane="1" departPos="5.00" departSpeed="max" arrivalLane="0" arrivalPos="max">
        <route edges="edge-east-EW edge-south-NS"/>
    </vehicle>
    <vehicle id="car-edge-north-NS_0_20-edge-south-NS_0_max--63699--91440-5-0.25" type="car--42389" depart="180.00" departLane="0" departPos="20.00" departSpeed="max" arrivalLane="0" arrivalPos="max">
        <route edges="edge-north-NS edge-south-NS"/>
    </vehicle>
    <vehicle id="car-edge-south-SN_0_20-edge-north-SN_0_max--79563--75419-4-0.10" type="car--42389" depart="180.00" departLane="0" departPos="20.00" departSpeed="max" arrivalLane="0" arrivalPos="max">
        <route edges="edge-south-SN edge-north-SN"/>
    </vehicle>
    <vehicle id="car-edge-west-WE_0_20-edge-east-WE_0_max--51855-610074-2-0.10" type="car--42389" depart="180.00" departLane="0" departPos="20.00" departSpeed="max" arrivalLane="0" arrivalPos="max">
        <route edges="edge-west-WE edge-east-WE"/>
    </vehicle>
    <vehicle id="car-edge-west-WE_0_20-edge-south-NS_0_max--23076--22093-3-0.10" type="car--42389" depart="180.00" departLane="0" departPos="20.00" departSpeed="max" arrivalLane="0" arrivalPos="max">
        <route edges="edge-west-WE edge-south-NS"/>
    </vehicle>
    <vehicle id="car-edge-west-WE_1_5-edge-north-SN_0_max--39205--63577-0-0.10" type="car--42389" depart="180.00" departLane="1" departPos="5.00" departSpeed="max" arrivalLane="0" arrivalPos="max">
        <route edges="edge-west-WE edge-north-SN"/>
    </vehicle>
    <vehicle id="car-edge-north-NS_0_20-edge-south-NS_0_max--63699--91440-5-0.26" type="car--42389" depart="187.20" departLane="0" departPos="20.00" departSpeed="max" arrivalLane="0" arrivalPos="max">
        <route edges="edge-north-NS edge-south-NS"/>
    </vehicle>
    <vehicle id="car-edge-north-NS_0_20-edge-south-NS_0_max--63699--91440-5-0.27" type="car--42389" depart="194.40" departLane="0" departPos="20.00" departSpeed="max" arrivalLane="0" arrivalPos="max">
        <route edges="edge-north-NS edge-south-NS"/>
    </vehicle>
    <vehicle id="car-edge-east-EW_1_5-edge-south-NS_0_max--57059--75468-1-0.11" type="car--42389" depart="198.00" departLane="1" departPos="5.00" departSpeed="max" arrivalLane="0" arrivalPos="max">
        <route edges="edge-east-EW edge-south-NS"/>
    </vehicle>
    <vehicle id="car-edge-south-SN_0_20-edge-north-SN_0_max--79563--75419-4-0.11" type="car--42389" depart="198.00" departLane="0" departPos="20.00" departSpeed="max" arrivalLane="0" arrivalPos="max">
        <route edges="edge-south-SN edge-north-SN"/>
    </vehicle>
    <vehicle id="car-edge-west-WE_0_20-edge-east-WE_0_max--51855-610074-2-0.11" type="car--42389" depart="198.00" departLane="0" departPos="20.00" departSpeed="max" arrivalLane="0" arrivalPos="max">
        <route edges="edge-west-WE edge-east-WE"/>
    </vehicle>
    <vehicle id="car-edge-west-WE_0_20-edge-south-NS_0_max--23076--22093-3-0.11" type="car--42389" depart="198.00" departLane="0" departPos="20.00" departSpeed="max" arrivalLane="0" arrivalPos="max">
        <route edges="edge-west-WE edge-south-NS"/>
    </vehicle>
    <vehicle id="car-edge-west-WE_1_5-edge-north-SN_0_max--39205--63577-0-0.11" type="car--42389" depart="198.00" departLane="1" departPos="5.00" departSpeed="max" arrivalLane="0" arrivalPos="max">
        <route edges="edge-west-WE edge-north-SN"/>
    </vehicle>
    <vehicle id="car-edge-north-NS_0_20-edge-south-NS_0_max--63699--91440-5-0.28" type="car--42389" depart="201.60" departLane="0" departPos="20.00" departSpeed="max" arrivalLane="0" arrivalPos="max">
        <route edges="edge-north-NS edge-south-NS"/>
    </vehicle>
    <vehicle id="car-edge-north-NS_0_20-edge-south-NS_0_max--63699--91440-5-0.29" type="car--42389" depart="208.80" departLane="0" departPos="20.00" departSpeed="max" arrivalLane="0" arrivalPos="max">
        <route edges="edge-north-NS edge-south-NS"/>
    </vehicle>
    <vehicle id="car-edge-east-EW_1_5-edge-south-NS_0_max--57059--75468-1-0.12" type="car--42389" depart="216.00" departLane="1" departPos="5.00" departSpeed="max" arrivalLane="0" arrivalPos="max">
        <route edges="edge-east-EW edge-south-NS"/>
    </vehicle>
    <vehicle id="car-edge-north-NS_0_20-edge-south-NS_0_max--63699--91440-5-0.30" type="car--42389" depart="216.00" departLane="0" departPos="20.00" departSpeed="max" arrivalLane="0" arrivalPos="max">
        <route edges="edge-north-NS edge-south-NS"/>
    </vehicle>
    <vehicle id="car-edge-south-SN_0_20-edge-north-SN_0_max--79563--75419-4-0.12" type="car--42389" depart="216.00" departLane="0" departPos="20.00" departSpeed="max" arrivalLane="0" arrivalPos="max">
        <route edges="edge-south-SN edge-north-SN"/>
    </vehicle>
    <vehicle id="car-edge-west-WE_0_20-edge-east-WE_0_max--51855-610074-2-0.12" type="car--42389" depart="216.00" departLane="0" departPos="20.00" departSpeed="max" arrivalLane="0" arrivalPos="max">
        <route edges="edge-west-WE edge-east-WE"/>
    </vehicle>
    <vehicle id="car-edge-west-WE_0_20-edge-south-NS_0_max--23076--22093-3-0.12" type="car--42389" depart="216.00" departLane="0" departPos="20.00" departSpeed="max" arrivalLane="0" arrivalPos="max">
        <route edges="edge-west-WE edge-south-NS"/>
    </vehicle>
    <vehicle id="car-edge-west-WE_1_5-edge-north-SN_0_max--39205--63577-0-0.12" type="car--42389" depart="216.00" departLane="1" departPos="5.00" departSpeed="max" arrivalLane="0" arrivalPos="max">
        <route edges="edge-west-WE edge-north-SN"/>
    </vehicle>
    <vehicle id="car-edge-north-NS_0_20-edge-south-NS_0_max--63699--91440-5-0.31" type="car--42389" depart="223.20" departLane="0" departPos="20.00" departSpeed="max" arrivalLane="0" arrivalPos="max">
        <route edges="edge-north-NS edge-south-NS"/>
    </vehicle>
    <vehicle id="car-edge-north-NS_0_20-edge-south-NS_0_max--63699--91440-5-0.32" type="car--42389" depart="230.40" departLane="0" departPos="20.00" departSpeed="max" arrivalLane="0" arrivalPos="max">
        <route edges="edge-north-NS edge-south-NS"/>
    </vehicle>
    <vehicle id="car-edge-east-EW_1_5-edge-south-NS_0_max--57059--75468-1-0.13" type="car--42389" depart="234.00" departLane="1" departPos="5.00" departSpeed="max" arrivalLane="0" arrivalPos="max">
        <route edges="edge-east-EW edge-south-NS"/>
    </vehicle>
    <vehicle id="car-edge-south-SN_0_20-edge-north-SN_0_max--79563--75419-4-0.13" type="car--42389" depart="234.00" departLane="0" departPos="20.00" departSpeed="max" arrivalLane="0" arrivalPos="max">
        <route edges="edge-south-SN edge-north-SN"/>
    </vehicle>
    <vehicle id="car-edge-west-WE_0_20-edge-east-WE_0_max--51855-610074-2-0.13" type="car--42389" depart="234.00" departLane="0" departPos="20.00" departSpeed="max" arrivalLane="0" arrivalPos="max">
        <route edges="edge-west-WE edge-east-WE"/>
    </vehicle>
    <vehicle id="car-edge-west-WE_0_20-edge-south-NS_0_max--23076--22093-3-0.13" type="car--42389" depart="234.00" departLane="0" departPos="20.00" departSpeed="max" arrivalLane="0" arrivalPos="max">
        <route edges="edge-west-WE edge-south-NS"/>
    </vehicle>
    <vehicle id="car-edge-west-WE_1_5-edge-north-SN_0_max--39205--63577-0-0.13" type="car--42389" depart="234.00" departLane="1" departPos="5.00" departSpeed="max" arrivalLane="0" arrivalPos="max">
        <route edges="edge-west-WE edge-north-SN"/>
    </vehicle>
    <vehicle id="car-edge-north-NS_0_20-edge-south-NS_0_max--63699--91440-5-0.33" type="car--42389" depart="237.60" departLane="0" departPos="20.00" departSpeed="max" arrivalLane="0" arrivalPos="max">
        <route edges="edge-north-NS edge-south-NS"/>
    </vehicle>